---- qbsp / ericw-tools 2.0.0-alpha8-32-g47faf6c0 ----

--- Options Summary ---
    "nocolor" was set to "1" (from command line)

Input file: C:\Users\IKFar\Downloads\quake-leveldesign-starterkit-20241007-windows\working\quake\nucleardust.map
Output file: C:\Users\IKFar\Downloads\quake-leveldesign-starterkit-20241007-windows\working\quake\nucleardust.bsp

INFO: using built-in palette.
fs::addArchive: WARNING: archive 'C:/Users/IKFar/Downloads/jam2_ikwhite.wad' not found
     35 entities
      5 unique textures
    244 texinfos
    370 unique planes

INFO: world extents calculated to 3848 units
    106 brushes
    632 sides
     92 side bevels

            0 texture frames added
WARNING: unable to find texture skip
WARNING: unable to find texture +0_fall
WARNING: unable to find texture +1_fall
WARNING: unable to find texture *rift-silver
WARNING: unable to find texture *rtex396
Processing hull 0...
    103 SOLID brushes
    103 brushes total
    614 visible sides
INFO: calculating BSP for 103 brushes with 614 sides
    103 brushes
    614 visible faces
    908 nodes
    677 expensive split nodes
    231 mid-split nodes
    909 leaves
    457 EMPTY leafs
    452 SOLID leafs
    909 leafs total
    25 max tree height
    13 avg tree height
    3,787 tree portals
    227 outside leaves
    0 detail filled leafs
    103 brushes
    252 visible faces
    362 non-visible faces
    511 nodes
    218 non-visible nodes
    511 expensive split nodes
    512 leaves
    235 EMPTY leafs
    277 SOLID leafs
    512 leafs total
    32 max tree height
    14 avg tree height
    2,326 tree portals
    125 outside leaves
    0 detail filled leafs
    2,326 tree portals
    579 sides visible
    579 makefaces
    191 merged
    160 subdivided
    270 nodes pruned
    110 player-occupiable leaves
    110 clusters of leaves
    240 vis portals
    132 SOLID leafs
    110 EMPTY leafs
    242 leafs total
    31 max tree height
    14 avg tree height
      551 edges added by tjunctions
      531 faces optimized through MWT
    1,619 triangles computed from MWT
      173 faces created via optimization of MWT triangles
    1,540 edges
      721 faces
Processing hull 1...
Processing hull 2...
Writing nucleardust.bsp as Quake BSP bsp29
Wrote nucleardust.bsp

count   lump name    byte size 
      4 models              256
    326 planes             6520
    825 vertexes           9900
    259 nodes              6216
    133 texinfos           5320
    739 faces             14780
    609 clipnodes          4872
    132 leafs              3696
    949 marksurfaces       1898
   1577 edges              6308
   3150 surfedges         12600
      5 textures             24
        lightdata             0
        visdata               0
        entdata            3153

0.105s seconds elapsed


